Version 4
SHEET 1 2024 680
WIRE 640 -992 640 -1040
WIRE 384 -896 384 -1040
WIRE 640 -864 640 -912
WIRE 816 -864 640 -864
WIRE 880 -864 816 -864
WIRE 992 -864 944 -864
WIRE 1056 -864 992 -864
WIRE 1200 -864 1136 -864
WIRE 1424 -864 1200 -864
WIRE 2000 -864 1504 -864
WIRE 640 -816 640 -864
WIRE 992 -800 992 -864
WIRE 384 -768 384 -816
WIRE 496 -768 384 -768
WIRE 576 -768 496 -768
WIRE 1792 -752 1760 -752
WIRE 1904 -752 1872 -752
WIRE 2000 -752 2000 -864
WIRE 2000 -752 1968 -752
WIRE 384 -720 384 -768
WIRE 496 -704 496 -768
WIRE 992 -688 992 -736
WIRE -16 -672 -80 -672
WIRE 144 -672 64 -672
WIRE 320 -672 144 -672
WIRE 144 -640 144 -672
WIRE 1072 -624 992 -624
WIRE 1200 -624 1200 -864
WIRE 1200 -624 1136 -624
WIRE 1248 -624 1200 -624
WIRE 1360 -624 1312 -624
WIRE 1632 -624 1360 -624
WIRE 1760 -624 1760 -752
WIRE 1760 -624 1712 -624
WIRE 1840 -624 1760 -624
WIRE 2000 -624 2000 -752
WIRE 2000 -624 1920 -624
WIRE 1200 -592 1200 -624
WIRE 144 -512 144 -560
WIRE 384 -512 384 -624
WIRE 496 -512 496 -640
WIRE 640 -512 640 -720
WIRE 1760 -496 1760 -624
WIRE 1856 -496 1760 -496
WIRE 1200 -480 1200 -512
WIRE 1200 -480 1104 -480
WIRE 2000 -480 2000 -624
WIRE 2000 -480 1920 -480
WIRE 1856 -464 1760 -464
WIRE 816 -432 816 -864
WIRE 864 -432 816 -432
WIRE 1040 -432 944 -432
WIRE -80 -400 -80 -672
WIRE 656 -400 -80 -400
WIRE 1760 -400 1760 -464
WIRE 1200 -336 1200 -480
WIRE -320 -256 -368 -256
WIRE -128 -256 -240 -256
WIRE 432 -256 -128 -256
WIRE 576 -256 432 -256
WIRE 1760 -240 1760 -320
WIRE 1104 -224 1104 -384
WIRE 1200 -224 1200 -256
WIRE 432 -208 432 -256
WIRE 576 -144 576 -256
WIRE 992 -128 992 -624
WIRE 1120 -128 992 -128
WIRE 1360 -128 1360 -624
WIRE 1360 -128 1200 -128
WIRE 432 -96 432 -128
WIRE 512 -96 432 -96
WIRE 432 -64 432 -96
WIRE -128 -48 -208 -48
WIRE -16 -48 -128 -48
WIRE 128 -48 48 -48
WIRE 160 -48 128 -48
WIRE 272 -48 224 -48
WIRE 272 -16 272 -48
WIRE 992 -16 992 -128
WIRE 1136 -16 992 -16
WIRE 1360 0 1360 -128
WIRE 1360 0 1200 0
WIRE 576 16 576 -48
WIRE 656 16 656 -400
WIRE 656 16 576 16
WIRE 688 16 656 16
WIRE 848 16 752 16
WIRE 992 16 848 16
WIRE 1136 16 992 16
WIRE 432 48 432 16
WIRE 128 64 128 -48
WIRE 272 96 272 64
WIRE 368 96 272 96
WIRE -688 112 -688 0
WIRE -560 112 -560 0
WIRE -368 112 -368 -256
WIRE -208 112 -208 -48
WIRE 576 112 576 16
WIRE 688 112 576 112
WIRE 848 112 848 16
WIRE 848 112 768 112
WIRE 272 128 272 96
WIRE 848 176 848 112
WIRE 992 192 992 16
WIRE 848 336 848 256
WIRE 992 336 992 256
WIRE -688 352 -688 192
WIRE -560 352 -560 192
WIRE -368 352 -368 192
WIRE -208 352 -208 192
WIRE 128 352 128 144
WIRE 272 352 272 208
WIRE 432 352 432 144
FLAG 272 352 0
FLAG 848 336 0
FLAG 992 336 0
FLAG 432 352 0
FLAG -128 -48 Trigger
FLAG -128 -256 Accent
FLAG 128 352 0
FLAG -208 352 0
FLAG -368 352 0
FLAG -560 352 0
FLAG -688 352 0
FLAG -688 0 Vee
FLAG -560 0 Vcc
FLAG 1168 -32 Vcc
FLAG 1168 32 Vee
FLAG 1104 -224 0
FLAG 1200 -224 0
FLAG 992 -688 0
FLAG 640 -1040 Vcc
FLAG 384 -1040 Vcc
FLAG 144 -512 0
FLAG 384 -512 0
FLAG 496 -512 0
FLAG 640 -512 0
FLAG 1888 -512 Vcc
FLAG 1888 -448 Vee
FLAG 1760 -240 0
DATAFLAG 992 16 ""
DATAFLAG 272 96 ""
SYMBOL diode -16 -32 R270
WINDOW 0 32 32 VTop 2
WINDOW 3 0 32 VBottom 2
SYMATTR InstName D1
SYMATTR Value 1N4148
SYMBOL res 112 48 R0
SYMATTR InstName R1
SYMATTR Value 100k
SYMBOL cap 224 -64 R90
WINDOW 0 0 32 VBottom 2
WINDOW 3 32 32 VTop 2
SYMATTR InstName C1
SYMATTR Value 100n
SYMBOL res 256 -32 R0
SYMATTR InstName R2
SYMATTR Value 22k
SYMBOL npn 368 48 R0
SYMATTR InstName Q1
SYMATTR Value 2N2222
SYMBOL res 416 -80 R0
SYMATTR InstName R4
SYMATTR Value 10k
SYMBOL res 416 -224 R0
SYMATTR InstName R5
SYMATTR Value 4.7k
SYMBOL cap 752 0 R90
WINDOW 0 0 32 VBottom 2
WINDOW 3 32 32 VTop 2
SYMATTR InstName C2
SYMATTR Value 15n
SYMBOL res 784 96 R90
WINDOW 0 0 56 VBottom 2
WINDOW 3 32 56 VTop 2
SYMATTR InstName R6
SYMATTR Value 100k
SYMBOL res 832 160 R0
SYMATTR InstName R7
SYMATTR Value 4.7k
SYMBOL diode 1008 256 R180
WINDOW 0 24 64 Left 2
WINDOW 3 24 0 Left 2
SYMATTR InstName D2
SYMATTR Value 1N4148
SYMBOL voltage -208 96 R0
WINDOW 123 0 0 Left 0
WINDOW 39 0 0 Left 0
SYMATTR InstName V1
SYMATTR Value PULSE(0 5 1m 10n 10n 1m 250m 3)
SYMBOL voltage -368 96 R0
WINDOW 123 0 0 Left 0
WINDOW 39 0 0 Left 0
SYMATTR InstName V2
SYMATTR Value 5
SYMBOL res 256 112 R0
SYMATTR InstName R3
SYMATTR Value 10k
SYMBOL pnp 512 -48 M180
SYMATTR InstName Q2
SYMATTR Value 2N2907
SYMBOL Opamps\\opamp2 1168 -64 R0
SYMATTR InstName U1
SYMATTR Value TL071
SYMBOL voltage -560 96 R0
WINDOW 123 0 0 Left 0
WINDOW 39 0 0 Left 0
SYMATTR InstName V3
SYMATTR Value 12
SYMBOL voltage -688 208 R180
WINDOW 0 24 96 Left 2
WINDOW 3 24 16 Left 2
WINDOW 123 0 0 Left 0
WINDOW 39 0 0 Left 0
SYMATTR InstName V4
SYMATTR Value 12
SYMBOL res 1216 -144 R90
WINDOW 0 0 56 VBottom 2
WINDOW 3 32 56 VTop 2
SYMATTR InstName R8
SYMATTR Value 1000k
SYMBOL cap 1136 -640 R90
WINDOW 0 0 32 VBottom 2
WINDOW 3 32 32 VTop 2
SYMATTR InstName C3
SYMATTR Value 15n
SYMBOL cap 1312 -640 R90
WINDOW 0 0 32 VBottom 2
WINDOW 3 32 32 VTop 2
SYMATTR InstName C4
SYMATTR Value 15n
SYMBOL res 1184 -608 R0
SYMATTR InstName R9
SYMATTR Value 6.8k
SYMBOL res 1184 -352 R0
SYMATTR InstName R10
SYMATTR Value 47k
SYMBOL npn 1040 -480 R0
SYMATTR InstName Q3
SYMATTR Value 2N2222
SYMBOL res 960 -448 R90
WINDOW 0 0 56 VBottom 2
WINDOW 3 32 56 VTop 2
SYMATTR InstName R11
SYMATTR Value 100k
SYMBOL res 1152 -880 R90
WINDOW 0 0 56 VBottom 2
WINDOW 3 32 56 VTop 2
SYMATTR InstName R12
SYMATTR Value 1000k
SYMBOL cap 944 -880 R90
WINDOW 0 0 32 VBottom 2
WINDOW 3 32 32 VTop 2
SYMATTR InstName C5
SYMATTR Value 33n
SYMBOL diode 976 -800 R0
SYMATTR InstName D3
SYMATTR Value 1N4148
SYMBOL npn 576 -816 R0
SYMATTR InstName Q4
SYMATTR Value 2N2222
SYMBOL npn 320 -720 R0
SYMATTR InstName Q5
SYMATTR Value 2N2222
SYMBOL res 624 -1008 R0
SYMATTR InstName R13
SYMATTR Value 22K
SYMBOL res 368 -912 R0
SYMATTR InstName R14
SYMATTR Value 1000K
SYMBOL cap 480 -704 R0
SYMATTR InstName C6
SYMATTR Value 100n
SYMBOL res 128 -656 R0
SYMATTR InstName R15
SYMATTR Value 2.7K
SYMBOL res 80 -688 R90
WINDOW 0 0 56 VBottom 2
WINDOW 3 32 56 VTop 2
SYMATTR InstName R16
SYMATTR Value 8.2K
SYMBOL res -224 -272 R90
WINDOW 0 0 56 VBottom 2
WINDOW 3 32 56 VTop 2
SYMATTR InstName R18
SYMATTR Value 1k
SYMBOL Opamps\\opamp2 1888 -544 R0
SYMATTR InstName U2
SYMATTR Value TL071
SYMBOL res 1728 -640 R90
WINDOW 0 0 56 VBottom 2
WINDOW 3 32 56 VTop 2
SYMATTR InstName R17
SYMATTR Value 47k
SYMBOL res 1936 -640 R90
WINDOW 0 0 56 VBottom 2
WINDOW 3 32 56 VTop 2
SYMATTR InstName R19
SYMATTR Value 47k
SYMBOL res 1776 -304 R180
WINDOW 0 36 76 Left 2
WINDOW 3 36 40 Left 2
SYMATTR InstName R20
SYMATTR Value 22k
SYMBOL res 1888 -768 R90
WINDOW 0 0 56 VBottom 2
WINDOW 3 32 56 VTop 2
SYMATTR InstName R21
SYMATTR Value 100k
SYMBOL cap 1968 -768 R90
WINDOW 0 0 32 VBottom 2
WINDOW 3 32 32 VTop 2
SYMATTR InstName C7
SYMATTR Value 33µ
SYMBOL res 1520 -880 R90
WINDOW 0 0 56 VBottom 2
WINDOW 3 32 56 VTop 2
SYMATTR InstName R22
SYMATTR Value 470k
TEXT -400 376 Left 2 !.tran 0 1000m 0
TEXT -696 -176 Left 2 !.include TL071.mod
